# Packages
 &PACKAGES
 useCAL         = .TRUE.,
 useEXF         = .TRUE.,
 useOBCS        = .TRUE.,
 useSEAICE      = .TRUE.,
 /
